#!/bin/bash

# Usage: varycachesize ./MM1.ss 256 8192
# for powers of two from 256 to 8192 inclusive

if [ -z $1 ] || [ -z $2 ] || [ -z $3 ]; then
  echo "Usage: ./$0 <file-to-test> <min-cache-size> <max-cache-size>"
  echo "Tests all multiples of 2 of the min-cache-size up to the max-cache-size"
  echo "Example usage: varycachesize ./MM1.ss 256 8192"
fi

for ((x=$2; x <= $3 ; x *= 2))
do
  echo -n "D1_cache_size," $x " ,dl1.miss_rate, "
  /homes/phjk/simplesim/sim-outorder -cache:dl1 dl1:$x:32:1:l \
     $1 \
     2>&1 | tee intermediate.txt | grep 'dl1.miss_rate\|bpred_bimod.bpred_addr_rate' | awk '{print $2;}'
done

